@<TRIPOS>MOLECULE
./1A28_STR_lig.pdb
    53    56     1     0     0
SMALL
USER_CHARGES
****
Generated from the CSD

@<TRIPOS>ATOM
     1 C1      21.2060   9.9350  63.0810   C.3       1 STR1   0.0118
     2 C2      21.2410   9.4460  64.5510   C.3       1 STR1   0.0694
     3 C3      22.0000   8.1250  64.6300   C.2       1 STR1   0.1725
     4 O3      21.7010   7.3010  65.5120   O.2       1 STR1  -0.2914
     5 C4      23.1180   7.8720  63.7340   C.2       1 STR1   0.0289
     6 C5      23.4530   8.7270  62.7850   C.2       1 STR1  -0.0420
     7 C6      24.6970   8.4430  61.9510   C.3       1 STR1   0.0221
     8 C7      24.4490   8.6370  60.4430   C.3       1 STR1   0.0044
     9 C8      23.7890   9.9970  60.0980   C.3       1 STR1   0.0006
    10 C9      22.4340  10.0950  60.8720   C.3       1 STR1   0.0035
    11 C10     22.6140  10.0230  62.4340   C.3       1 STR1   0.0157
    12 C11     21.6330  11.3540  60.4500   C.3       1 STR1   0.0003
    13 C12     21.4320  11.4340  58.9110   C.3       1 STR1   0.0004
    14 C13     22.7860  11.4040  58.1690   C.3       1 STR1   0.0065
    15 C14     23.4830  10.0600  58.5980   C.3       1 STR1   0.0004
    16 C15     24.6740   9.9180  57.6180   C.3       1 STR1   0.0004
    17 C16     24.0720  10.4500  56.2670   C.3       1 STR1   0.0073
    18 C17     22.7140  11.1490  56.6270   C.3       1 STR1   0.0576
    19 C18     23.6590  12.6770  58.4540   C.3       1 STR1   0.0004
    20 C19     23.4270  11.2460  63.0070   C.3       1 STR1   0.0041
    21 C20     22.3750  12.3880  55.7810   C.2       1 STR1   0.1507
    22 O20     23.2120  12.8760  55.0520   O.2       1 STR1  -0.2961
    23 C21     21.0090  12.9760  55.8570   C.3       1 STR1   0.0722
    24 H1      23.8984   9.6222  55.5810   H         1 STR1   0.0073
    25 H2      24.7528  11.1653  55.8079   H         1 STR1   0.0073
    26 H3      21.8401   9.2297  60.5815   H         1 STR1   0.0035
    27 H4      25.0074   7.4138  62.1250   H         1 STR1   0.0221
    28 H5      25.4906   9.1194  62.2649   H         1 STR1   0.0221
    29 H6      21.9231  10.4195  56.4590   H         1 STR1   0.0576
    30 H7      23.8642  12.7449  59.5213   H         1 STR1   0.0004
    31 H8      24.5982  12.6028  57.9078   H         1 STR1   0.0004
    32 H9      23.1203  13.5664  58.1306   H         1 STR1   0.0004
    33 H10     23.5452  11.1310  64.0834   H         1 STR1   0.0041
    34 H11     24.4082  11.2823  62.5360   H         1 STR1   0.0041
    35 H12     22.8893  12.1695  62.7974   H         1 STR1   0.0041
    36 H13     22.7869   9.2520  58.3775   H         1 STR1   0.0004
    37 H14     24.4458  10.8175  60.3832   H         1 STR1   0.0006
    38 H15     20.8036  13.2858  56.8806   H         1 STR1   0.0722
    39 H16     20.9486  13.8402  55.1972   H         1 STR1   0.0722
    40 H17     20.2759  12.2320  55.5488   H         1 STR1   0.0722
    41 H18     20.9142  12.3607  58.6680   H         1 STR1   0.0004
    42 H19     20.8303  10.5862  58.5867   H         1 STR1   0.0004
    43 H20     24.9863   8.8787  57.5269   H         1 STR1   0.0004
    44 H21     25.5202  10.5247  57.9372   H         1 STR1   0.0004
    45 H22     23.7959   7.8381  60.0949   H         1 STR1   0.0044
    46 H23     25.4051   8.5759  59.9252   H         1 STR1   0.0044
    47 H24     22.1734  12.2401  60.7795   H         1 STR1   0.0003
    48 H25     20.6560  11.3252  60.9302   H         1 STR1   0.0003
    49 H26     23.6931   6.9544  63.8488   H         1 STR1   0.0289
    50 H27     20.7507  10.9239  63.0556   H         1 STR1   0.0118
    51 H28     20.6003   9.2415  62.4995   H         1 STR1   0.0118
    52 H29     20.2230   9.3017  64.9098   H         1 STR1   0.0694
    53 H30     21.7417  10.1898  65.1691   H         1 STR1   0.0694
@<TRIPOS>BOND
     1    22    21    2
     2    21    23    1
     3    21    18    1
     4    17    18    1
     5    17    16    1
     6    18    14    1
     7    16    15    1
     8    14    19    1
     9    14    15    1
    10    14    13    1
    11    15     9    1
    12    13    12    1
    13     9     8    1
    14     9    10    1
    15     8     7    1
    16    12    10    1
    17    10    11    1
    18     7     6    1
    19    11     6    1
    20    11    20    1
    21    11     1    1
    22     6     5    2
    23     1     2    1
    24     5     3    1
    25     2     3    1
    26     3     4    2
    27    17    24    1
    28    17    25    1
    29    10    26    1
    30     7    27    1
    31     7    28    1
    32    18    29    1
    33    19    30    1
    34    19    31    1
    35    19    32    1
    36    20    33    1
    37    20    34    1
    38    20    35    1
    39    15    36    1
    40     9    37    1
    41    23    38    1
    42    23    39    1
    43    23    40    1
    44    13    41    1
    45    13    42    1
    46    16    43    1
    47    16    44    1
    48     8    45    1
    49     8    46    1
    50    12    47    1
    51    12    48    1
    52     5    49    1
    53     1    50    1
    54     1    51    1
    55     2    52    1
    56     2    53    1
@<TRIPOS>SUBSTRUCTURE
     1 STR1        1 GROUP             0 ****  ****    0  
