@<TRIPOS>MOLECULE
./1A69_FMB_lig.pdb
    31    33     1     0     0
SMALL
USER_CHARGES
****
Generated from the CSD

@<TRIPOS>ATOM
     1 N1     -18.6290  72.4960  64.7810   N.am      1 FMB240  -0.1842
     2 C2     -17.6590  72.8430  65.6920   C.2       1 FMB240   0.2018
     3 N3     -17.4340  72.1880  66.8280   N.2       1 FMB240  -0.2208
     4 C4     -18.2650  71.1350  66.9710   C.2       1 FMB240   0.1248
     5 C5     -19.2640  70.7080  66.1180   C.2       1 FMB240   0.1793
     6 C6     -19.4960  71.4120  64.9200   C.2       1 FMB240   0.3016
     7 O6     -20.3350  71.1770  64.0460   O.2       1 FMB240  -0.2634
     8 N7     -19.9000  69.5840  66.6230   N.2       1 FMB240  -0.1417
     9 N8     -19.2890  69.3560  67.7600   N.pl3     1 FMB240  -0.1481
    10 C9     -18.2820  70.2630  68.0340   C.2       1 FMB240   0.1293
    11 C1'    -17.5510  69.7970  69.2390   C.3       1 FMB240   0.1910
    12 C2'    -16.4120  70.7300  69.6340   C.3       1 FMB240   0.2173
    13 O2'    -15.2040  69.9950  69.6560   O.3       1 FMB240  -0.2173
    14 C3'    -16.8460  71.3300  70.9950   C.3       1 FMB240   0.2144
    15 O3'    -16.1160  70.8000  72.1220   O.3       1 FMB240  -0.2176
    16 C4'    -18.3190  70.9540  71.1130   C.3       1 FMB240   0.1814
    17 O4'    -18.4590  69.7460  70.3290   O.3       1 FMB240  -0.3446
    18 C5'    -19.2870  72.0220  70.6090   C.3       1 FMB240   0.2141
    19 O5'    -20.6560  71.5800  70.5560   O.3       1 FMB240  -0.2176
    20 H1     -19.5314  68.5888  68.3787   H         1 FMB240  -0.1481
    21 H2     -15.0304  69.6165  68.7545   H         1 FMB240  -0.2173
    22 H3     -16.3320  71.5294  68.8989   H         1 FMB240   0.2173
    23 H4     -15.1483  70.9920  72.0094   H         1 FMB240  -0.2176
    24 H5     -16.7443  72.4139  70.9680   H         1 FMB240   0.2144
    25 H6     -17.1526  68.8002  69.0554   H         1 FMB240   0.1910
    26 H7     -18.5467  70.7306  72.1542   H         1 FMB240   0.1814
    27 H8     -20.9538  71.3154  71.4656   H         1 FMB240  -0.2176
    28 H9     -18.9817  72.3179  69.6064   H         1 FMB240   0.2141
    29 H10    -19.2283  72.8817  71.2749   H         1 FMB240   0.2141
    30 H11    -17.0360  73.7081  65.4696   H         1 FMB240   0.2018
    31 H12    -18.7206  73.0693  63.9484   H         1 FMB240  -0.1842
@<TRIPOS>BOND
     1     7     6    2
     2     1     6   am
     3     1     2    1
     4     6     5    1
     5     2     3    2
     6     5     8    2
     7     5     4    1
     8     8     9    1
     9     3     4    1
    10     4    10    2
    11     9    10    1
    12    10    11    1
    13    11    12    1
    14    11    17    1
    15    12    13    1
    16    12    14    1
    17    17    16    1
    18    19    18    1
    19    18    16    1
    20    14    16    1
    21    14    15    1
    22     9    20    1
    23    13    21    1
    24    12    22    1
    25    15    23    1
    26    14    24    1
    27    11    25    1
    28    16    26    1
    29    19    27    1
    30    18    28    1
    31    18    29    1
    32     2    30    1
    33     1    31    1
@<TRIPOS>SUBSTRUCTURE
     1 FMB240      1 GROUP             0 ****  ****    0  
